  136
Fe_3 C (cementite) & Pnma (#62) & oP16 & D0_11                                 
C      4.53010000     1.68700000     2.03535000
C      1.98510000     1.68700000      .22615000
Fe      .18324000     1.68700000     3.85359600
Fe     2.36176000     5.06100000     1.59209600
Fe      .94674000      .42512400     1.48354400
Fe     3.49174000     2.94887600      .77795600
C      4.53010000     1.68700000     6.55835000
C      1.98510000     1.68700000     4.74915000
Fe      .18324000     1.68700000     8.37659600
Fe     2.36176000     5.06100000     6.11509600
Fe     2.72824000     1.68700000     2.93090400
Fe      .94674000      .42512400     6.00654400
Fe     3.49174000     2.94887600     5.30095600
C      1.98510000     1.68700000     9.27215000
Fe     2.72824000     1.68700000     7.45390400
C      4.53010000     8.43500000     2.03535000
C      1.98510000     8.43500000      .22615000
Fe      .18324000     8.43500000     3.85359600
Fe     2.36176000    11.80900000     1.59209600
Fe      .94674000     7.17312400     1.48354400
Fe     3.49174000     9.69687600      .77795600
Fe      .94674000     2.94887600     1.48354400
Fe     1.59826000     6.32287600     3.74504400
C      4.53010000     8.43500000     6.55835000
C      1.98510000     8.43500000     4.74915000
Fe      .18324000     8.43500000     8.37659600
Fe     2.36176000    11.80900000     6.11509600
Fe     2.72824000     8.43500000     2.93090400
Fe      .94674000     7.17312400     6.00654400
Fe     3.49174000     9.69687600     5.30095600
Fe      .94674000     2.94887600     6.00654400
Fe     1.59826000     6.32287600     8.26804400
C      1.98510000     8.43500000     9.27215000
Fe     2.72824000     8.43500000     7.45390400
Fe      .94674000     9.69687600     1.48354400
Fe     1.59826000    13.07087600     3.74504400
Fe      .94674000     9.69687600     6.00654400
Fe     1.59826000    13.07087600     8.26804400
C      9.62010000     1.68700000     2.03535000
C      3.10490000     5.06100000     4.29685000
C      7.07510000     1.68700000      .22615000
Fe     5.27324000     1.68700000     3.85359600
Fe     7.45176000     5.06100000     1.59209600
Fe     6.03674000      .42512400     1.48354400
Fe     8.58174000     2.94887600      .77795600
C      9.62010000     1.68700000     6.55835000
C       .55990000     5.06100000     2.48765000
C      3.10490000     5.06100000     8.81985000
C      7.07510000     1.68700000     4.74915000
Fe     5.27324000     1.68700000     8.37659600
Fe     4.90676000     5.06100000      .66940400
Fe     7.45176000     5.06100000     6.11509600
Fe     7.81824000     1.68700000     2.93090400
Fe     6.03674000      .42512400     6.00654400
Fe     8.58174000     2.94887600     5.30095600
Fe     4.14326000     3.79912400     3.03945600
Fe     3.49174000      .42512400      .77795600
C       .55990000     5.06100000     7.01065000
C      7.07510000     1.68700000     9.27215000
Fe     4.90676000     5.06100000     5.19240400
Fe     7.81824000     1.68700000     7.45390400
Fe     4.14326000     3.79912400     7.56245600
Fe     3.49174000      .42512400     5.30095600
C      9.62010000     8.43500000     2.03535000
C      3.10490000    11.80900000     4.29685000
C      7.07510000     8.43500000      .22615000
Fe     5.27324000     8.43500000     3.85359600
Fe     7.45176000    11.80900000     1.59209600
Fe     6.03674000     7.17312400     1.48354400
Fe     8.58174000     9.69687600      .77795600
Fe     6.03674000     2.94887600     1.48354400
Fe     6.68826000     6.32287600     3.74504400
C      9.62010000     8.43500000     6.55835000
C       .55990000    11.80900000     2.48765000
C      3.10490000    11.80900000     8.81985000
C      7.07510000     8.43500000     4.74915000
Fe     5.27324000     8.43500000     8.37659600
Fe     4.90676000    11.80900000      .66940400
Fe     7.45176000    11.80900000     6.11509600
Fe     7.81824000     8.43500000     2.93090400
Fe     6.03674000     7.17312400     6.00654400
Fe     4.14326000     6.32287600     3.03945600
Fe     8.58174000     9.69687600     5.30095600
Fe     1.59826000     3.79912400     3.74504400
Fe     4.14326000    10.54712400     3.03945600
Fe     6.03674000     2.94887600     6.00654400
Fe     6.68826000     6.32287600     8.26804400
Fe     3.49174000     7.17312400      .77795600
C       .55990000    11.80900000     7.01065000
C      7.07510000     8.43500000     9.27215000
Fe     4.90676000    11.80900000     5.19240400
Fe     7.81824000     8.43500000     7.45390400
Fe     4.14326000     6.32287600     7.56245600
Fe     1.59826000     3.79912400     8.26804400
Fe     4.14326000    10.54712400     7.56245600
Fe     3.49174000     7.17312400     5.30095600
Fe     6.03674000     9.69687600     1.48354400
Fe     6.68826000    13.07087600     3.74504400
Fe     4.14326000    13.07087600     3.03945600
Fe     1.59826000    10.54712400     3.74504400
Fe     6.03674000     9.69687600     6.00654400
Fe     6.68826000    13.07087600     8.26804400
Fe     4.14326000    13.07087600     7.56245600
Fe     1.59826000    10.54712400     8.26804400
C      8.19490000     5.06100000     4.29685000
Fe    10.36324000     1.68700000     3.85359600
C      5.64990000     5.06100000     2.48765000
C      8.19490000     5.06100000     8.81985000
Fe    10.36324000     1.68700000     8.37659600
Fe     9.99676000     5.06100000      .66940400
Fe     9.23326000     3.79912400     3.03945600
Fe     8.58174000      .42512400      .77795600
C      5.64990000     5.06100000     7.01065000
Fe     9.99676000     5.06100000     5.19240400
Fe     9.23326000     3.79912400     7.56245600
Fe     8.58174000      .42512400     5.30095600
C      8.19490000    11.80900000     4.29685000
Fe    10.36324000     8.43500000     3.85359600
C      5.64990000    11.80900000     2.48765000
C      8.19490000    11.80900000     8.81985000
Fe    10.36324000     8.43500000     8.37659600
Fe     9.99676000    11.80900000      .66940400
Fe     9.23326000     6.32287600     3.03945600
Fe     6.68826000     3.79912400     3.74504400
Fe     9.23326000    10.54712400     3.03945600
Fe     8.58174000     7.17312400      .77795600
C      5.64990000    11.80900000     7.01065000
Fe     9.99676000    11.80900000     5.19240400
Fe     9.23326000     6.32287600     7.56245600
Fe     6.68826000     3.79912400     8.26804400
Fe     9.23326000    10.54712400     7.56245600
Fe     8.58174000     7.17312400     5.30095600
Fe     9.23326000    13.07087600     3.03945600
Fe     6.68826000    10.54712400     3.74504400
Fe     9.23326000    13.07087600     7.56245600
Fe     6.68826000    10.54712400     8.26804400
